Circuit: * C:\Users\matia\OneDrive - Instituto Tecnologico y de Estudios Superiores de Monterrey\courses\Class Repositories\TE2015 Microcontroladores\simulation\LED_driver.asc


idavg: AVG(i(d1))=0.0201555 FROM 1 TO 3


Date: Fri Aug 05 00:15:07 2022
Total elapsed time: 0.039 seconds.

tnom = 27
temp = 27
method = trap
totiter = 152
traniter = 0
tranpoints = 0
accept = 0
rejected = 0
matrix size = 11
fillins = 0
solver = Normal
Matrix Compiler1:      32 opcodes  0.1/[0.1]/0.1
Matrix Compiler2: 813 bytes object code size  0.1/0.1/[0.1]

